test/TEST190523/v_h11.csv
Bus, BasekV, Node1, Magnitude1, Angle1, pu1, Node2, Magnitude2, Angle2, pu2, Node3, Magnitude3, Angle3, pu3
"SOURCEBUS", 69, 1,    41805.4,    0.0,    1.0494, 2,    41825.5, -120.1,    1.0499, 3,    41786.7,  119.9,    1.0489
"BUSMVMAI1", 12.8, 1,    7747.43,  -30.2,    1.0484, 2,    7754.76, -150.1,    1.0493, 3,    7740.63,   89.6,    1.0474
"BUSMVMAI136", 12.505, 1,    7747.45,  -30.2,    1.0731, 2,    7754.75, -150.1,    1.0741, 3,    7740.54,   89.6,    1.0721
"BUSMVMAI3", 12.505, 1,    7765.22,  -30.6,    1.0755, 2,    7743.54, -149.8,    1.0725, 3,    7670.61,   89.0,    1.0624
"BUSMVMAI2", 12.505, 1,    7765.27,  -30.6,    1.0755, 2,    7743.51, -149.8,    1.0725, 3,    7670.42,   89.0,    1.0624
"BUSMVMAI4", 12.505, 1,    7765.78,  -30.6,    1.0756, 2,    7743.19, -149.8,    1.0725, 3,    7668.45,   89.0,    1.0621
"BUSMVMAI46", 12.505, 1,     7765.2,  -30.6,    1.0755, 2,    7743.55, -149.8,    1.0725, 3,    7670.69,   89.0,    1.0624
"BUSMVMAI5", 12.505, 1,    7765.99,  -30.6,    1.0756, 2,    7742.65, -149.8,    1.0724, 3,    7666.37,   89.0,    1.0618
"BUSMVMAI862", 12.505, 1,    7765.77,  -30.6,    1.0756, 0, 0, 0, 0, 0, 0, 0, 0
"BUSMVMAI6", 12.505, 1,    7766.02,  -30.6,    1.0756, 2,    7742.56, -149.8,    1.0724, 3,    7665.99,   89.0,    1.0618
"BUSMVMAI859", 12.505, 3,    7666.34,   89.0,    1.0618, 0, 0, 0, 0, 0, 0, 0, 0
"BUSMVMAI860", 12.505, 3,    7666.37,   89.0,    1.0618, 0, 0, 0, 0, 0, 0, 0, 0
"BUSMVMAI7", 12.505, 1,    7765.94,  -30.6,    1.0756, 2,    7742.23, -149.8,    1.0723, 3,    7664.68,   89.0,    1.0616
"BUSMVMAI8", 12.505, 1,    7767.02,  -30.6,    1.0758, 2,    7741.38, -149.8,    1.0722, 3,    7663.11,   89.0,    1.0614
"BUSMVMAI9", 12.505, 1,    7765.94,  -30.6,    1.0756, 2,    7742.23, -149.8,    1.0723, 3,    7664.67,   89.0,    1.0616
"BUSMVMAI10", 12.505, 1,    7765.46,  -30.6,    1.0755, 2,    7742.28, -149.8,    1.0723, 3,    7664.33,   89.0,    1.0615
"BUSMVMAI56", 12.505, 1,     7765.7,  -30.6,    1.0756, 2,    7742.26, -149.8,    1.0723, 3,     7664.5,   89.0,    1.0616
"BUSMVMAI861", 12.505, 3,    7666.27,   89.0,    1.0618, 0, 0, 0, 0, 0, 0, 0, 0
"BUSMVMAI12", 12.505, 1,    7767.91,  -30.6,    1.0759, 2,    7740.69, -149.8,    1.0721, 3,    7661.82,   89.0,    1.0612
"BUSMVMAI51", 12.505, 1,    7767.02,  -30.6,    1.0758, 2,    7741.38, -149.8,    1.0722, 3,    7663.11,   89.0,    1.0614
"BUSMVMAI2171", 12.505, 1,    7767.02,  -30.6,    1.0758, 0, 0, 0, 0, 0, 0, 0, 0
"BUSMVMAI863", 12.505, 3,    7666.23,   89.0,    1.0618, 0, 0, 0, 0, 0, 0, 0, 0
"BUSMVMAI2165", 12.505, 3,    7664.67,   89.0,    1.0616, 0, 0, 0, 0, 0, 0, 0, 0
"BUSMVMAI694", 12.505, 1,    7765.94,  -30.6,    1.0756, 2,    7742.24, -149.8,    1.0723, 3,    7664.67,   89.0,    1.0616
"BUSMVMAI122", 12.505, 1,    7765.44,  -30.6,    1.0755, 2,    7742.29, -149.8,    1.0723, 3,    7664.31,   89.0,    1.0615
"BUSMVMAI11", 12.505, 1,     7767.9,  -30.6,    1.0759, 2,    7740.67, -149.8,    1.0721, 3,    7661.83,   89.0,    1.0612
"BUSMVMAI13", 12.505, 1,    7767.89,  -30.6,    1.0759, 2,    7740.67, -149.8,    1.0721, 3,    7661.85,   89.0,    1.0612
"BUSMVMAI18", 12.505, 1,    7768.26,  -30.6,    1.0759, 2,    7740.45, -149.8,    1.0721, 3,    7661.32,   89.0,    1.0611
"BUSMVMAI14", 12.505, 1,    7767.87,  -30.6,    1.0759, 2,    7740.62, -149.8,    1.0721, 3,    7661.91,   89.0,    1.0612
"BUSMVMAI15", 12.505, 1,    7767.83,  -30.6,    1.0759, 2,    7740.58, -149.8,    1.0721, 3,    7661.96,   89.0,    1.0612
"BUSMVMAI16", 12.505, 1,    7767.82,  -30.6,    1.0759, 2,    7740.59, -149.8,    1.0721, 3,    7661.99,   89.0,    1.0612
"BUSMVMAI2166", 12.505, 2,    7740.57, -149.8,    1.0721, 0, 0, 0, 0, 0, 0, 0, 0
"BUSMVMAI2172", 12.505, 1,    7765.76,  -30.6,    1.0756, 0, 0, 0, 0, 0, 0, 0, 0
"BUSMVMAI864", 12.505, 3,    7666.19,   89.0,    1.0618, 0, 0, 0, 0, 0, 0, 0, 0
"BUSMVMAI865", 12.505, 3,    7666.13,   89.0,    1.0618, 0, 0, 0, 0, 0, 0, 0, 0
"BUSMVMAI17", 12.505, 1,    7767.82,  -30.6,    1.0759, 2,    7740.59, -149.8,    1.0721, 3,    7661.99,   89.0,    1.0612
"BUSMVMAI695", 12.505, 1,    7767.81,  -30.6,    1.0759, 2,    7740.59, -149.8,    1.0721, 3,       7662,   89.0,    1.0612
"BUSMVMAI866", 12.505, 3,    7666.13,   89.0,    1.0618, 0, 0, 0, 0, 0, 0, 0, 0
"BUSMVMAI2176", 12.505, 3,    7666.13,   89.0,    1.0618, 0, 0, 0, 0, 0, 0, 0, 0
"BUSMVMAI2177", 12.505, 3,    7666.12,   89.0,    1.0618, 0, 0, 0, 0, 0, 0, 0, 0
"BUSMVMAI2178", 12.505, 3,    7666.09,   89.0,    1.0618, 0, 0, 0, 0, 0, 0, 0, 0
"BUSMVMAI19", 12.505, 1,     7768.9,  -30.6,     1.076, 2,       7740, -149.8,     1.072, 3,    7660.42,   88.9,     1.061
"BUSMVMAI20", 12.505, 1,    7769.81,  -30.6,    1.0762, 2,    7739.36, -149.8,    1.0719, 3,    7659.15,   88.9,    1.0608
"BUSMVMAI53", 12.505, 1,     7768.9,  -30.6,     1.076, 2,       7740, -149.8,     1.072, 3,    7660.42,   88.9,     1.061
"BUSMVMAI21", 12.505, 1,    7770.76,  -30.6,    1.0763, 2,    7738.69, -149.8,    1.0718, 3,    7657.82,   88.9,    1.0606
"BUSMVMAI22", 12.505, 1,    7771.88,  -30.6,    1.0764, 2,    7737.91, -149.8,    1.0717, 3,    7656.28,   88.9,    1.0604
"BUSMVMAI23", 12.505, 1,    7770.76,  -30.6,    1.0763, 2,    7738.69, -149.8,    1.0718, 3,    7657.82,   88.9,    1.0606
"BUSMVMAI25", 12.505, 1,    7773.07,  -30.6,    1.0766, 2,    7737.06, -149.8,    1.0716, 3,    7654.65,   88.9,    1.0602
"BUSMVMAI52", 12.505, 1,    7771.88,  -30.6,    1.0764, 2,    7737.91, -149.8,    1.0717, 3,    7656.28,   88.9,    1.0604
"BUSMVMAI54", 12.505, 1,    7771.88,  -30.6,    1.0764, 2,    7737.91, -149.8,    1.0717, 3,    7656.28,   88.9,    1.0604
"BUSMVMAI55", 12.505, 1,    7771.88,  -30.6,    1.0764, 2,    7737.91, -149.8,    1.0717, 3,    7656.28,   88.9,    1.0604
"BUSMVMAI696", 12.505, 1,    7770.76,  -30.6,    1.0763, 2,     7738.7, -149.8,    1.0718, 3,    7657.82,   88.9,    1.0606
"BUSMVMAI24", 12.505, 1,    7773.19,  -30.6,    1.0766, 2,    7736.98, -149.8,    1.0716, 3,     7654.5,   88.9,    1.0602
"BUSMVMAI26", 12.505, 1,    7774.38,  -30.6,    1.0768, 2,    7736.13, -149.7,    1.0715, 3,    7652.88,   88.9,      1.06
"BUSMVMAI49", 12.505, 1,    7773.07,  -30.6,    1.0766, 2,    7737.06, -149.8,    1.0716, 3,    7654.65,   88.9,    1.0602
"BUSMVMAI50", 12.505, 1,    7773.07,  -30.6,    1.0766, 2,    7737.06, -149.8,    1.0716, 3,    7654.65,   88.9,    1.0602
"BUSMVMAI27", 12.505, 1,    7774.36,  -30.6,    1.0768, 2,    7736.14, -149.7,    1.0715, 3,    7652.88,   88.9,      1.06
"BUSMVMAI28", 12.505, 1,     7775.3,  -30.6,    1.0769, 2,    7735.47, -149.7,    1.0714, 3,    7651.66,   88.9,    1.0598
"BUSMVMAI29", 12.505, 1,    7774.35,  -30.6,    1.0768, 2,    7736.15, -149.7,    1.0715, 3,    7652.87,   88.9,      1.06
"BUSMVMAI31", 12.505, 1,    7776.37,  -30.6,    1.0771, 2,    7734.71, -149.7,    1.0713, 3,    7650.24,   88.9,    1.0596
"BUSMVMAI30", 12.505, 1,    7774.33,  -30.6,    1.0768, 2,    7736.16, -149.7,    1.0715, 3,    7652.86,   88.9,      1.06
"BUSMVMAI34", 12.505, 1,    7774.31,  -30.6,    1.0768, 2,    7736.17, -149.7,    1.0715, 3,    7652.85,   88.9,      1.06
"BUSMVMAI867", 12.505, 1,    7776.32,  -30.6,    1.0771, 0, 0, 0, 0, 0, 0, 0, 0
"BUSMVMAI43", 12.505, 1,    7776.39,  -30.6,    1.0771, 2,    7734.69, -149.7,    1.0713, 3,     7650.2,   88.9,    1.0596
"BUSMVMAI871", 12.505, 2,    7734.71, -149.7,    1.0713, 0, 0, 0, 0, 0, 0, 0, 0
"BUSMVMAI33", 12.505, 1,     7776.7,  -30.6,    1.0771, 2,    7734.46, -149.7,    1.0713, 3,    7649.81,   88.8,    1.0595
"BUSMVMAI32", 12.505, 1,    7777.63,  -30.6,    1.0772, 2,    7733.79, -149.7,    1.0712, 3,    7648.62,   88.8,    1.0594
"BUSMVMAI37", 12.505, 1,    7778.87,  -30.6,    1.0774, 2,    7732.89, -149.7,     1.071, 3,    7647.02,   88.8,    1.0591
"BUSMVMAI44", 12.505, 1,    7776.42,  -30.6,    1.0771, 2,    7734.67, -149.7,    1.0713, 3,    7650.17,   88.9,    1.0596
"BUSMVMAI35", 12.505, 1,    7774.31,  -30.6,    1.0768, 2,    7736.17, -149.7,    1.0715, 3,    7652.84,   88.9,      1.06
"BUSMVMAI36", 12.505, 1,    7774.31,  -30.6,    1.0768, 2,    7736.17, -149.7,    1.0715, 3,    7652.84,   88.9,    1.0599
"BUSMVMAI869", 12.505, 1,    7776.32,  -30.6,    1.0771, 0, 0, 0, 0, 0, 0, 0, 0
"BUSMVMAI38", 12.505, 1,    7779.86,  -30.6,    1.0775, 2,    7732.17, -149.7,    1.0709, 3,    7645.77,   88.8,     1.059
"BUSMVMAI2181", 12.505, 1,    7778.86,  -30.6,    1.0774, 0, 0, 0, 0, 0, 0, 0, 0
"BUSMVMAI868", 12.505, 1,    7776.24,  -30.6,     1.077, 0, 0, 0, 0, 0, 0, 0, 0
"BUSMVMAI870", 12.505, 1,    7776.16,  -30.6,     1.077, 0, 0, 0, 0, 0, 0, 0, 0
"BUSMVMAI39", 12.505, 1,    7779.88,  -30.6,    1.0775, 2,    7732.16, -149.7,    1.0709, 3,    7645.72,   88.8,     1.059
"BUSMVMAI40", 12.505, 1,     7780.8,  -30.6,    1.0777, 2,    7731.48, -149.7,    1.0708, 3,    7644.56,   88.8,    1.0588
"BUSMVMAI697", 12.505, 1,    7779.91,  -30.6,    1.0776, 2,    7732.17, -149.7,    1.0709, 3,    7645.58,   88.8,    1.0589
"BUSMVMAI41", 12.505, 1,     7781.9,  -30.6,    1.0778, 2,     7730.7, -149.7,    1.0707, 3,    7643.14,   88.8,    1.0586
"BUSMVMAI42", 12.505, 1,    7781.93,  -30.6,    1.0778, 2,    7730.68, -149.7,    1.0707, 3,    7643.11,   88.8,    1.0586
"BUSMVMAI48", 12.505, 1,    7782.78,  -30.6,    1.0779, 2,    7730.07, -149.7,    1.0706, 3,    7642.01,   88.8,    1.0584
"BUSMVMAI303", 12.505, 1,    7782.34,  -30.6,    1.0779, 2,    7730.38, -149.7,    1.0707, 3,    7642.58,   88.8,    1.0585
"BUSMVMAI45", 12.505, 1,    7781.94,  -30.6,    1.0778, 2,    7730.67, -149.7,    1.0707, 3,    7643.09,   88.8,    1.0586
"BUSMVMAI701", 12.505, 1,    7781.95,  -30.6,    1.0778, 2,    7730.68, -149.7,    1.0707, 3,    7643.06,   88.8,    1.0586
"BUSMVMAI47", 12.505, 1,    7764.98,  -30.6,    1.0755, 2,    7743.69, -149.8,    1.0725, 3,    7671.56,   89.0,    1.0625
"BUSMVMAI179", 12.505, 1,    7765.09,  -30.6,    1.0755, 2,    7743.62, -149.8,    1.0725, 3,    7671.13,   89.0,    1.0625
"BUSMVMAI160", 12.505, 1,    7764.44,  -30.6,    1.0754, 2,    7744.02, -149.8,    1.0726, 3,    7673.64,   89.0,    1.0628
"BUSMVMAI1103", 12.505, 1,    7782.72,  -30.6,    1.0779, 0, 0, 0, 0, 0, 0, 0, 0
"BUSMVMAI259", 12.505, 1,    7783.26,  -30.6,     1.078, 2,    7729.71, -149.7,    1.0706, 3,    7641.48,   88.8,    1.0584
"BUSMVMAI304", 12.505, 1,    7782.78,  -30.6,    1.0779, 2,    7730.07, -149.7,    1.0706, 3,    7642.01,   88.8,    1.0584
"BUSMVMAI702", 12.505, 1,    7773.07,  -30.6,    1.0766, 2,    7737.06, -149.8,    1.0716, 3,    7654.65,   88.9,    1.0602
"BUSMVMAI58", 12.505, 1,    7765.13,  -30.6,    1.0755, 2,    7742.32, -149.8,    1.0723, 3,    7664.09,   89.0,    1.0615
"BUSMVMAI57", 12.505, 1,    7764.01,  -30.6,    1.0753, 2,    7742.44, -149.8,    1.0724, 3,    7663.26,   89.0,    1.0614
"BUSMVMAI60", 12.505, 1,    7763.54,  -30.6,    1.0753, 2,    7742.49, -149.8,    1.0724, 3,    7662.93,   89.0,    1.0613
"BUSMVMAI703", 12.505, 1,    7764.01,  -30.6,    1.0753, 2,    7742.44, -149.8,    1.0724, 3,    7663.26,   89.0,    1.0614
"BUSMVMAI123", 12.505, 1,    7765.41,  -30.6,    1.0755, 2,    7742.29, -149.8,    1.0723, 3,    7664.29,   89.0,    1.0615
"BUSMVMAI59", 12.505, 1,    7762.88,  -30.6,    1.0752, 2,    7742.58, -149.8,    1.0724, 3,    7662.57,   89.0,    1.0613
"BUSMVMAI61", 12.505, 1,    7761.77,  -30.6,     1.075, 2,    7742.73, -149.8,    1.0724, 3,    7661.98,   89.0,    1.0612
"BUSMVMAI63", 12.505, 1,    7763.58,  -30.6,    1.0753, 2,    7742.47, -149.8,    1.0724, 3,    7662.87,   89.0,    1.0613
"BUSMVMAI874", 12.505, 3,    7662.93,   89.0,    1.0613, 0, 0, 0, 0, 0, 0, 0, 0
"BUSMVMAI62", 12.505, 1,    7760.72,  -30.6,    1.0749, 2,    7742.81, -149.8,    1.0724, 3,    7661.39,   89.0,    1.0611
"BUSMVMAI64", 12.505, 1,    7759.56,  -30.6,    1.0747, 2,    7742.93, -149.8,    1.0724, 3,    7660.98,   89.0,    1.0611
"BUSMVMAI942", 12.505, 3,    7661.39,   89.0,    1.0611, 0, 0, 0, 0, 0, 0, 0, 0
"BUSMVMAI873", 12.505, 3,    7661.38,   89.0,    1.0611, 0, 0, 0, 0, 0, 0, 0, 0
"BUSMVMAI872", 12.505, 3,    7661.12,   89.0,    1.0611, 0, 0, 0, 0, 0, 0, 0, 0
"BUSMVMAI880", 12.505, 3,    7661.11,   89.0,    1.0611, 0, 0, 0, 0, 0, 0, 0, 0
"BUSMVMAI945", 12.505, 3,    7662.86,   89.0,    1.0613, 0, 0, 0, 0, 0, 0, 0, 0
"BUSMVMAI65", 12.505, 1,    7758.37,  -30.6,    1.0746, 2,    7743.02, -149.8,    1.0724, 3,    7660.52,   89.0,     1.061
"BUSMVMAI66", 12.505, 1,    7757.16,  -30.6,    1.0744, 2,    7743.12, -149.8,    1.0725, 3,    7660.06,   89.0,     1.061
"BUSMVMAI67", 12.505, 1,    7755.86,  -30.7,    1.0742, 2,    7743.21, -149.8,    1.0725, 3,    7659.57,   89.0,    1.0609
"BUSMVMAI878", 12.505, 1,    7755.83,  -30.7,    1.0742, 0, 0, 0, 0, 0, 0, 0, 0
"BUSMVMAI68", 12.505, 1,    7754.87,  -30.7,    1.0741, 2,    7743.29, -149.8,    1.0725, 3,    7659.19,   89.0,    1.0608
"BUSMVMAI706", 12.505, 1,    7755.86,  -30.7,    1.0742, 2,    7743.22, -149.8,    1.0725, 3,    7659.56,   89.0,    1.0609
"BUSMVMAI876", 12.505, 3,    7662.85,   89.0,    1.0613, 0, 0, 0, 0, 0, 0, 0, 0
"BUSMVMAI875", 12.505, 3,    7662.64,   89.0,    1.0613, 0, 0, 0, 0, 0, 0, 0, 0
"BUSMVMAI877", 12.505, 3,    7662.57,   89.0,    1.0613, 0, 0, 0, 0, 0, 0, 0, 0
"BUSMVMAI883", 12.505, 3,    7662.39,   89.0,    1.0613, 0, 0, 0, 0, 0, 0, 0, 0
"BUSMVMAI884", 12.505, 3,    7662.57,   89.0,    1.0613, 0, 0, 0, 0, 0, 0, 0, 0
"BUSMVMAI886", 12.505, 3,    7662.58,   89.0,    1.0613, 0, 0, 0, 0, 0, 0, 0, 0
"BUSMVMAI885", 12.505, 1,    7755.77,  -30.7,    1.0742, 0, 0, 0, 0, 0, 0, 0, 0
"BUSMVMAI879", 12.505, 3,    7660.75,   89.0,     1.061, 0, 0, 0, 0, 0, 0, 0, 0
"BUSMVMAI881", 12.505, 3,    7660.75,   89.0,     1.061, 0, 0, 0, 0, 0, 0, 0, 0
"BUSMVMAI888", 12.505, 3,     7660.7,   89.0,     1.061, 0, 0, 0, 0, 0, 0, 0, 0
"BUSMVMAI882", 12.505, 3,    7660.76,   89.0,     1.061, 0, 0, 0, 0, 0, 0, 0, 0
"BUSMVMAI944", 12.505, 3,    7660.76,   89.0,     1.061, 0, 0, 0, 0, 0, 0, 0, 0
"BUSMVMAI889", 12.505, 3,    7662.24,   89.0,    1.0613, 0, 0, 0, 0, 0, 0, 0, 0
"BUSMVMAI2183", 12.505, 3,    7662.56,   89.0,    1.0613, 0, 0, 0, 0, 0, 0, 0, 0
"BUSMVMAI2184", 12.505, 3,    7662.56,   89.0,    1.0613, 0, 0, 0, 0, 0, 0, 0, 0
"BUSMVMAI71", 12.505, 1,    7753.95,  -30.7,     1.074, 2,    7743.32, -149.8,    1.0725, 3,    7658.83,   89.0,    1.0608
"BUSMVMAI2182", 12.505, 1,    7755.76,  -30.7,    1.0742, 0, 0, 0, 0, 0, 0, 0, 0
"BUSMVMAI2185", 12.505, 1,    7755.78,  -30.7,    1.0742, 0, 0, 0, 0, 0, 0, 0, 0
"BUSMVMAI2186", 12.505, 1,    7755.71,  -30.7,    1.0742, 0, 0, 0, 0, 0, 0, 0, 0
"BUSMVMAI887", 12.505, 3,    7662.59,   89.0,    1.0613, 0, 0, 0, 0, 0, 0, 0, 0
"BUSMVMAI892", 12.505, 3,     7662.6,   89.0,    1.0613, 0, 0, 0, 0, 0, 0, 0, 0
"BUSMVMAI897", 12.505, 3,    7660.63,   89.0,     1.061, 0, 0, 0, 0, 0, 0, 0, 0
"BUSMVMAI890", 12.505, 3,    7662.11,   89.0,    1.0612, 0, 0, 0, 0, 0, 0, 0, 0
"BUSMVMAI891", 12.505, 3,    7662.02,   89.0,    1.0612, 0, 0, 0, 0, 0, 0, 0, 0
"BUSMVMAI896", 12.505, 3,    7661.99,   89.0,    1.0612, 0, 0, 0, 0, 0, 0, 0, 0
"BUSMVMAI893", 12.505, 3,     7662.6,   89.0,    1.0613, 0, 0, 0, 0, 0, 0, 0, 0
"BUSMVMAI894", 12.505, 3,    7662.61,   89.0,    1.0613, 0, 0, 0, 0, 0, 0, 0, 0
"BUSMVMAI895", 12.505, 3,    7662.61,   89.0,    1.0613, 0, 0, 0, 0, 0, 0, 0, 0
"BUSMVMAI898", 12.505, 3,    7662.61,   89.0,    1.0613, 0, 0, 0, 0, 0, 0, 0, 0
"BUSMVMAI70", 12.505, 1,    7755.87,  -30.7,    1.0742, 2,    7743.22, -149.8,    1.0725, 3,    7659.52,   89.0,    1.0609
"BUSMVMAI69", 12.505, 1,    7755.87,  -30.7,    1.0742, 2,    7743.22, -149.8,    1.0725, 3,    7659.52,   89.0,    1.0609
"BUSMVMAI708", 12.505, 1,    7755.87,  -30.7,    1.0742, 2,    7743.22, -149.8,    1.0725, 3,    7659.53,   89.0,    1.0609
"BUSMVMAI72", 12.505, 1,    7752.73,  -30.7,    1.0738, 2,    7743.36, -149.8,    1.0725, 3,    7658.36,   89.0,    1.0607
"BUSMVMAI73", 12.505, 1,    7751.53,  -30.7,    1.0736, 2,    7743.44, -149.8,    1.0725, 3,    7658.03,   89.0,    1.0607
"BUSMVMAI134", 12.505, 1,    7752.73,  -30.7,    1.0738, 2,    7743.36, -149.8,    1.0725, 3,    7658.36,   89.0,    1.0607
"BUSMVMAI900", 12.505, 3,    7660.57,   89.0,     1.061, 0, 0, 0, 0, 0, 0, 0, 0
"BUSMVMAI904", 12.505, 3,     7662.6,   89.0,    1.0613, 0, 0, 0, 0, 0, 0, 0, 0
"BUSMVMAI75", 12.505, 1,    7750.95,  -30.7,    1.0735, 2,     7743.5, -149.8,    1.0725, 3,    7657.83,   89.0,    1.0606
"BUSMVMAI718", 12.505, 1,    7751.53,  -30.7,    1.0736, 2,    7743.44, -149.8,    1.0725, 3,    7658.03,   89.0,    1.0607
"BUSMVMAI899", 12.505, 3,    7660.57,   89.0,     1.061, 0, 0, 0, 0, 0, 0, 0, 0
"BUSMVMAI902", 12.505, 3,    7660.54,   89.0,     1.061, 0, 0, 0, 0, 0, 0, 0, 0
"BUSMVMAI901", 12.505, 3,    7660.52,   89.0,     1.061, 0, 0, 0, 0, 0, 0, 0, 0
"BUSMVMAI903", 12.505, 3,    7660.48,   89.0,     1.061, 0, 0, 0, 0, 0, 0, 0, 0
"BUSMVMAI905", 12.505, 3,    7660.43,   89.0,     1.061, 0, 0, 0, 0, 0, 0, 0, 0
"BUSMVMAI907", 12.505, 3,    7660.47,   89.0,     1.061, 0, 0, 0, 0, 0, 0, 0, 0
"BUSMVMAI906", 12.505, 3,    7660.42,   89.0,     1.061, 0, 0, 0, 0, 0, 0, 0, 0
"BUSMVMAI946", 12.505, 3,    7660.42,   89.0,     1.061, 0, 0, 0, 0, 0, 0, 0, 0
"BUSMVMAI74", 12.505, 1,    7750.95,  -30.7,    1.0735, 2,     7743.5, -149.8,    1.0725, 3,    7657.83,   89.0,    1.0606
"BUSMVMAI76", 12.505, 1,    7750.84,  -30.7,    1.0735, 2,    7743.57, -149.8,    1.0725, 3,    7657.78,   89.0,    1.0606
"BUSMVMAI77", 12.505, 1,    7750.62,  -30.7,    1.0735, 2,    7743.48, -149.8,    1.0725, 3,    7657.73,   89.0,    1.0606
"BUSMVMAI79", 12.505, 1,    7750.83,  -30.7,    1.0735, 2,    7743.57, -149.8,    1.0725, 3,    7657.77,   89.0,    1.0606
"BUSMVMAI81", 12.505, 1,     7750.6,  -30.7,    1.0735, 2,    7743.39, -149.8,    1.0725, 3,    7657.76,   89.0,    1.0606
"BUSMVMAI91", 12.505, 1,    7749.77,  -30.7,    1.0734, 2,    7743.52, -149.8,    1.0725, 3,    7657.43,   89.0,    1.0606
"BUSMVMAI78", 12.505, 1,    7750.64,  -30.7,    1.0735, 2,     7743.7, -149.8,    1.0725, 3,    7657.68,   89.0,    1.0606
"BUSMVMAI80", 12.505, 1,    7750.46,  -30.7,    1.0735, 2,    7743.82, -149.8,    1.0726, 3,    7657.58,   89.0,    1.0606
"BUSMVMAI908", 12.505, 1,    7750.34,  -30.7,    1.0735, 0, 0, 0, 0, 0, 0, 0, 0
"BUSMVMAI89", 12.505, 1,    7750.41,  -30.7,    1.0735, 2,    7743.85, -149.8,    1.0726, 3,    7657.53,   89.0,    1.0606
"BUSMVMAI949", 12.505, 3,    7660.47,   89.0,     1.061, 0, 0, 0, 0, 0, 0, 0, 0
"BUSMVMAI82", 12.505, 1,    7750.59,  -30.7,    1.0735, 2,    7743.32, -149.8,    1.0725, 3,    7657.78,   89.0,    1.0606
"BUSMVMAI83", 12.505, 1,    7750.61,  -30.7,    1.0735, 2,    7743.33, -149.8,    1.0725, 3,    7657.75,   89.0,    1.0606
"BUSMVMAI86", 12.505, 1,    7750.63,  -30.7,    1.0735, 2,    7743.33, -149.8,    1.0725, 3,    7657.72,   89.0,    1.0606
"BUSMVMAI85", 12.505, 1,    7751.53,  -30.7,    1.0736, 2,    7743.39, -149.8,    1.0725, 3,    7658.09,   89.0,    1.0607
"BUSMVMAI84", 12.505, 1,    7751.48,  -30.7,    1.0736, 2,    7743.37, -149.8,    1.0725, 3,    7658.16,   89.0,    1.0607
"BUSMVMAI93", 12.505, 1,    7751.45,  -30.7,    1.0736, 2,    7743.36, -149.8,    1.0725, 3,    7658.19,   89.0,    1.0607
"BUSMVMAI2198", 12.505, 2,    7743.37, -149.8,    1.0725, 0, 0, 0, 0, 0, 0, 0, 0
"BUSMVMAI709", 12.505, 1,    7751.53,  -30.7,    1.0736, 2,    7743.44, -149.8,    1.0725, 3,    7658.04,   89.0,    1.0607
"BUSMVMAI88", 12.505, 1,    7750.65,  -30.7,    1.0735, 2,    7743.33, -149.8,    1.0725, 3,    7657.69,   89.0,    1.0606
"BUSMVMAI87", 12.505, 1,    7750.67,  -30.7,    1.0735, 2,    7743.34, -149.8,    1.0725, 3,    7657.67,   89.0,    1.0606
"BUSMVMAI99", 12.505, 1,    7750.68,  -30.7,    1.0735, 2,    7743.35, -149.8,    1.0725, 3,    7657.66,   89.0,    1.0606
"BUSMVMAI722", 12.505, 1,    7750.67,  -30.7,    1.0735, 2,    7743.34, -149.8,    1.0725, 3,    7657.66,   89.0,    1.0606
"BUSMVMAI909", 12.505, 1,    7750.24,  -30.7,    1.0734, 0, 0, 0, 0, 0, 0, 0, 0
"BUSMVMAI90", 12.505, 1,    7750.42,  -30.7,    1.0735, 2,    7743.84, -149.8,    1.0726, 3,    7657.49,   89.0,    1.0606
"BUSMVMAI102", 12.505, 1,    7750.43,  -30.7,    1.0735, 2,    7743.83, -149.8,    1.0726, 3,    7657.45,   89.0,    1.0606
"BUSMVMAI92", 12.505, 1,    7749.03,  -30.7,    1.0733, 2,    7743.56, -149.8,    1.0725, 3,    7657.17,   89.0,    1.0606
"BUSMVMAI132", 12.505, 1,    7749.77,  -30.7,    1.0734, 2,    7743.52, -149.8,    1.0725, 3,    7657.43,   89.0,    1.0606
"BUSMVMAI98", 12.505, 1,    7749.03,  -30.7,    1.0733, 2,    7743.56, -149.8,    1.0725, 3,    7657.17,   89.0,    1.0605
"BUSMVMAI100", 12.505, 1,     7748.1,  -30.7,    1.0731, 2,    7743.68, -149.8,    1.0725, 3,    7656.81,   89.0,    1.0605
"BUSMVMAI723", 12.505, 1,    7749.03,  -30.7,    1.0733, 2,    7743.55, -149.8,    1.0725, 3,    7657.18,   89.0,    1.0606
"BUSMVMAI96", 12.505, 1,    7751.43,  -30.7,    1.0736, 2,    7743.35, -149.8,    1.0725, 3,    7658.23,   89.0,    1.0607
"BUSMVMAI916", 12.505, 1,    7751.45,  -30.7,    1.0736, 0, 0, 0, 0, 0, 0, 0, 0
"BUSMVMAI95", 12.505, 1,    7749.03,  -30.7,    1.0733, 2,    7743.49, -149.8,    1.0725, 3,    7657.18,   89.0,    1.0606
"BUSMVMAI94", 12.505, 1,    7749.01,  -30.7,    1.0733, 2,    7743.44, -149.8,    1.0725, 3,    7657.21,   89.0,    1.0606
"BUSMVMAI112", 12.505, 1,    7749.01,  -30.7,    1.0733, 2,    7743.44, -149.8,    1.0725, 3,     7657.2,   89.0,    1.0606
"BUSMVMAI126", 12.505, 1,    7749.03,  -30.7,    1.0733, 2,     7743.5, -149.8,    1.0725, 3,    7657.18,   89.0,    1.0606
"BUSMVMAI97", 12.505, 1,    7751.39,  -30.7,    1.0736, 2,    7743.33, -149.8,    1.0725, 3,    7658.28,   89.0,    1.0607
"BUSMVMAI711", 12.505, 1,    7751.43,  -30.7,    1.0736, 2,    7743.35, -149.8,    1.0725, 3,    7658.23,   89.0,    1.0607
"BUSMVMAI915", 12.505, 1,    7751.39,  -30.7,    1.0736, 0, 0, 0, 0, 0, 0, 0, 0
...
"BUSLVMAI1", 0.20785, 1,    127.376,   89.0,    1.0615, 2,    127.392,  -91.0,    1.0616, 0, 0, 0, 0
"BUSLVMAI2", 0.20785, 1,    127.733,   89.3,    1.0644, 2,    127.747,  -90.7,    1.0646, 0, 0, 0, 0
"BUSLVMAI3", 0.20785, 1,    127.349,   89.0,    1.0612, 2,    127.365,  -91.0,    1.0614, 0, 0, 0, 0
"BUSLVMAI4", 0.20785, 1,    128.718,  -30.8,    1.0727, 2,     128.83,  149.2,    1.0736, 0, 0, 0, 0
"BUSLVMAI5", 0.20785, 1,    128.212, -149.8,    1.0684, 2,    128.263,   30.2,    1.0689, 0, 0, 0, 0
"BUSLVMAI6", 0.20785, 1,    127.155,   88.9,    1.0596, 2,     127.17,  -91.1,    1.0598, 0, 0, 0, 0
"BUSLVMAI7", 0.20785, 1,    127.382,   89.0,    1.0615, 2,    127.396,  -91.0,    1.0616, 0, 0, 0, 0
"BUSLVMAI8", 0.20785, 1,    126.802,   88.8,    1.0567, 2,    126.823,  -91.2,    1.0569, 0, 0, 0, 0
"BUSLVMAI9", 0.20785, 1,    126.693,   88.6,    1.0558, 2,    126.706,  -91.4,    1.0559, 0, 0, 0, 0
"BUSLVMAI10", 0.20785, 1,    126.708,   88.6,    1.0559, 2,    126.721,  -91.4,     1.056, 0, 0, 0, 0
"BUSLVMAI11", 0.20785, 1,    128.598, -149.8,    1.0716, 2,    128.611,   30.2,    1.0718, 0, 0, 0, 0
"BUSLVMAI12", 0.20785, 1,    128.515, -149.8,     1.071, 2,    128.531,   30.2,    1.0711, 0, 0, 0, 0
"BUSLVMAI13", 0.20785, 1,    129.009,  -30.6,    1.0751, 2,    129.025,  149.4,    1.0752, 0, 0, 0, 0
"BUSLVMAI14", 0.20785, 1,    129.203,  -30.6,    1.0767, 2,    129.219,  149.4,    1.0768, 0, 0, 0, 0
"BUSLVMAI15", 0.20785, 1,    129.106,  -30.6,    1.0759, 2,    129.119,  149.4,     1.076, 0, 0, 0, 0
"BUSLVMAI16", 0.20785, 1,    127.353,   89.0,    1.0613, 2,    127.371,  -91.0,    1.0614, 0, 0, 0, 0
"BUSLVMAI17", 0.20785, 1,    125.864,   88.5,    1.0489, 2,    125.898,  -91.5,    1.0492, 0, 0, 0, 0
"BUSLVMAI18", 0.20785, 1,    127.237,   88.9,    1.0603, 2,    127.253,  -91.1,    1.0604, 0, 0, 0, 0
"BUSLVMAI19", 0.20785, 1,    127.563,   89.1,     1.063, 2,    127.576,  -90.9,    1.0631, 0, 0, 0, 0
"BUSLVMAI20", 0.20785, 1,    127.535, -150.0,    1.0628, 2,    127.582,   30.0,    1.0632, 0, 0, 0, 0
"BUSLVMAI21", 0.20785, 1,    127.377,   89.0,    1.0615, 2,    127.393,  -91.0,    1.0616, 0, 0, 0, 0
"BUSLVMAI22", 0.20785, 1,    128.967,  -30.7,    1.0747, 2,    129.063,  149.3,    1.0755, 0, 0, 0, 0
"BUSLVMAI23", 0.20785, 1,    127.331,   89.0,    1.0611, 2,    127.346,  -91.0,    1.0612, 0, 0, 0, 0
"BUSLVMAI24", 0.20785, 1,    127.346,   89.0,    1.0612, 2,    127.362,  -91.0,    1.0613, 0, 0, 0, 0
"BUSLVMAI25", 0.20785, 1,     127.31,   89.0,    1.0609, 2,    127.326,  -91.0,     1.061, 0, 0, 0, 0
"BUSLVMAI26", 0.20785, 1,    128.497, -149.9,    1.0708, 2,    128.513,   30.1,    1.0709, 0, 0, 0, 0
"BUSLVMAI27", 0.20785, 1,    128.616, -149.8,    1.0718, 2,    128.633,   30.2,    1.0719, 0, 0, 0, 0
"BUSLVMAI28", 0.20785, 1,    127.238,   88.9,    1.0603, 2,    127.253,  -91.1,    1.0604, 0, 0, 0, 0
"BUSLVMAI29", 0.20785, 1,    126.587,   88.6,    1.0549, 2,    126.602,  -91.4,     1.055, 0, 0, 0, 0
"BUSLVMAI30", 0.20785, 1,    128.521, -149.7,     1.071, 2,    128.535,   30.3,    1.0711, 0, 0, 0, 0
"BUSLVMAI31", 0.20785, 1,    127.351,   89.0,    1.0613, 2,    127.367,  -91.0,    1.0614, 0, 0, 0, 0
"BUSLVMAI32", 0.20785, 1,    128.734,  -30.7,    1.0728, 2,    128.747,  149.3,    1.0729, 0, 0, 0, 0
"BUSLVMAI33", 0.20785, 1,    127.193,   88.9,    1.0599, 2,    127.206,  -91.1,      1.06, 0, 0, 0, 0
"BUSLVMAI34", 0.20785, 1,    125.135,   88.5,    1.0428, 2,    125.256,  -91.5,    1.0438, 0, 0, 0, 0
"BUSLVMAI35", 0.20785, 1,    127.289,   89.0,    1.0607, 2,    127.303,  -91.0,    1.0609, 0, 0, 0, 0
"BUSLVMAI36", 0.20785, 1,    127.288,   89.0,    1.0607, 2,    127.302,  -91.0,    1.0608, 0, 0, 0, 0
"BUSLVMAI37", 0.20785, 1,    127.282,   89.0,    1.0607, 2,    127.297,  -91.0,    1.0608, 0, 0, 0, 0
"BUSLVMAI38", 0.20785, 1,    125.791, -150.4,    1.0483, 2,    125.808,   29.6,    1.0484, 0, 0, 0, 0
"BUSLVMAI39", 0.20785, 1,     128.68, -149.8,    1.0723, 2,    128.693,   30.2,    1.0724, 0, 0, 0, 0
"BUSLVMAI40", 0.20785, 1,    126.947,   88.8,    1.0579, 2,    126.994,  -91.2,    1.0583, 0, 0, 0, 0
"BUSLVMAI41", 0.20785, 1,     128.78,  -30.7,    1.0732, 2,    128.795,  149.3,    1.0733, 0, 0, 0, 0
"BUSLVMAI42", 0.20785, 1,    128.827,  -30.7,    1.0736, 2,    128.843,  149.3,    1.0737, 0, 0, 0, 0
"BUSLVMAI43", 0.20785, 1,    128.803,  -30.7,    1.0734, 2,    128.818,  149.3,    1.0735, 0, 0, 0, 0
"BUSLVMAI44", 0.20785, 1,    127.128,   89.0,    1.0594, 2,    127.161,  -91.0,    1.0597, 0, 0, 0, 0
"BUSLVMAI45", 0.20785, 1,    127.066,   88.9,    1.0589, 2,     127.08,  -91.1,     1.059, 0, 0, 0, 0
"BUSLVMAI46", 0.20785, 1,    127.244,   89.0,    1.0604, 2,     127.26,  -91.0,    1.0605, 0, 0, 0, 0
"BUSLVMAI47", 0.20785, 1,    127.292,   89.0,    1.0608, 2,    127.306,  -91.0,    1.0609, 0, 0, 0, 0
"BUSLVMAI48", 0.20785, 1,     126.68,   88.7,    1.0557, 2,    126.697,  -91.3,    1.0558, 0, 0, 0, 0
"BUSLVMAI49", 0.20785, 1,    128.793,  -30.7,    1.0733, 2,    128.809,  149.3,    1.0734, 0, 0, 0, 0
"BUSLVMAI50", 0.20785, 1,    126.824, -150.3,    1.0569, 2,    126.935,   29.7,    1.0578, 0, 0, 0, 0
"BUSLVMAI51", 0.20785, 1,    128.052,  -30.9,    1.0671, 2,    128.068,  149.1,    1.0672, 0, 0, 0, 0
"BUSLVMAI52", 0.20785, 1,      127.3,   89.0,    1.0608, 2,    127.313,  -91.0,    1.0609, 0, 0, 0, 0
"BUSLVMAI53", 0.20785, 1,    127.283,   89.0,    1.0607, 2,    127.299,  -91.0,    1.0608, 0, 0, 0, 0
"BUSLVMAI54", 0.20785, 1,    126.735,   88.8,    1.0561, 2,    126.751,  -91.2,    1.0563, 0, 0, 0, 0
"BUSLVMAI55", 0.20785, 1,    128.822,  -30.7,    1.0735, 2,    128.837,  149.3,    1.0736, 0, 0, 0, 0
"BUSLVMAI56", 0.20785, 1,    127.394,   89.1,    1.0616, 2,    127.407,  -90.9,    1.0617, 0, 0, 0, 0
"BUSLVMAI57", 0.20785, 1,    127.227,   89.0,    1.0602, 2,    127.242,  -91.0,    1.0604, 0, 0, 0, 0
"BUSLVMAI58", 0.20785, 1,    127.298,   89.0,    1.0608, 2,    127.312,  -91.0,    1.0609, 0, 0, 0, 0
"BUSLVMAI59", 0.20785, 1,    128.793,  -30.7,    1.0733, 2,    128.809,  149.3,    1.0734, 0, 0, 0, 0
"BUSLVMAI60", 0.20785, 1,    128.673,  -30.7,    1.0723, 2,    128.686,  149.2,    1.0724, 0, 0, 0, 0
"BUSLVMAI61", 0.20785, 1,    127.426,  -31.3,    1.0619, 2,    127.445,  148.7,     1.062, 0, 0, 0, 0
"BUSLVMAI62", 0.20785, 1,    128.508, -149.9,    1.0709, 2,    128.522,   30.1,     1.071, 0, 0, 0, 0
"BUSLVMAI63", 0.20785, 1,    128.449,  -30.7,    1.0704, 2,    128.471,  149.3,    1.0706, 0, 0, 0, 0
"BUSLVMAI64", 0.20785, 1,    128.542, -149.9,    1.0712, 2,    128.555,   30.1,    1.0713, 0, 0, 0, 0
"BUSLVMAI65", 0.20785, 1,    128.778,  -30.7,    1.0731, 2,    128.792,  149.3,    1.0733, 0, 0, 0, 0
"BUSLVMAI66", 0.20785, 1,    127.288,   89.0,    1.0607, 2,    127.303,  -91.0,    1.0609, 0, 0, 0, 0
"BUSLVMAI67", 0.20785, 1,    128.252,  -30.9,    1.0688, 2,    128.268,  149.1,    1.0689, 0, 0, 0, 0
"BUSLVMAI68", 0.20785, 1,    128.237,  -30.9,    1.0686, 2,     128.25,  149.1,    1.0687, 0, 0, 0, 0
"BUSLVMAI69", 0.20785, 1,    127.292,   89.0,    1.0608, 2,    127.305,  -91.0,    1.0609, 0, 0, 0, 0
"BUSLVMAI70", 0.20785, 1,    126.949,   88.8,    1.0579, 2,    126.975,  -91.2,    1.0581, 0, 0, 0, 0
"BUSLVMAI71", 0.20785, 1,    128.678,  -30.6,    1.0723, 2,    128.693,  149.4,    1.0724, 0, 0, 0, 0
"BUSLVMAI72", 0.20785, 1,    128.691,  -30.7,    1.0724, 2,    128.704,  149.3,    1.0725, 0, 0, 0, 0
"BUSLVMAI73", 0.20785, 1,    128.827,  -30.6,    1.0736, 2,     128.84,  149.4,    1.0737, 0, 0, 0, 0
"BUSLVMAI74", 0.20785, 1,    128.792,  -30.7,    1.0733, 2,    128.808,  149.3,    1.0734, 0, 0, 0, 0
"BUSLVMAI75", 0.20785, 1,    128.605, -149.8,    1.0717, 2,    128.619,   30.2,    1.0718, 0, 0, 0, 0
"BUSLVMAI76", 0.20785, 1,    127.289,   89.0,    1.0607, 2,    127.302,  -91.0,    1.0608, 0, 0, 0, 0
"BUSLVMAI77", 0.20785, 1,    128.065,  -30.9,    1.0672, 2,    128.079,  149.1,    1.0673, 0, 0, 0, 0
"BUSLVMAI78", 0.20785, 1,    128.873,  -30.6,    1.0739, 2,    128.886,  149.4,    1.0741, 0, 0, 0, 0
"BUSLVMAI79", 0.20785, 1,    127.233,   89.0,    1.0603, 2,    127.247,  -91.0,    1.0604, 0, 0, 0, 0
"BUSLVMAI80", 0.20785, 1,    126.052,   88.4,    1.0504, 2,    126.076,  -91.6,    1.0506, 0, 0, 0, 0
"BUSLVMAI81", 0.20785, 1,    127.288,   89.0,    1.0607, 2,    127.302,  -91.0,    1.0608, 0, 0, 0, 0
"BUSLVMAI82", 0.20785, 1,    127.563,   89.1,     1.063, 2,     127.58,  -90.9,    1.0632, 0, 0, 0, 0
"BUSLVMAI83", 0.20785, 1,     128.59,  -30.7,    1.0716, 2,    128.608,  149.2,    1.0717, 0, 0, 0, 0
"BUSLVMAI84", 0.20785, 1,    127.604,   89.2,    1.0634, 2,    127.619,  -90.8,    1.0635, 0, 0, 0, 0
"BUSLVMAI85", 0.20785, 1,    128.751, -149.7,    1.0729, 2,    128.774,   30.3,    1.0731, 0, 0, 0, 0
"BUSLVMAI86", 0.20785, 1,    128.609,  -30.7,    1.0717, 2,    128.633,  149.3,    1.0719, 0, 0, 0, 0
"BUSLVMAI87", 0.20785, 1,    129.042,  -30.5,    1.0753, 2,    129.073,  149.5,    1.0756, 0, 0, 0, 0
"BUSLVMAI88", 0.20785, 1,    127.325,   89.0,     1.061, 2,    127.338,  -91.0,    1.0611, 0, 0, 0, 0
"BUSLVMAI89", 0.20785, 1,    127.289,   89.0,    1.0607, 2,    127.302,  -91.0,    1.0608, 0, 0, 0, 0
"BUSLVMAI90", 0.20785, 1,    126.776,   88.8,    1.0565, 2,    126.792,  -91.2,    1.0566, 0, 0, 0, 0
"BUSLVMAI91", 0.20785, 1,     127.29,   89.0,    1.0608, 2,    127.306,  -91.0,    1.0609, 0, 0, 0, 0
"BUSLVMAI92", 0.20785, 1,    128.345,  -30.8,    1.0695, 2,    128.376,  149.2,    1.0698, 0, 0, 0, 0
"BUSLVMAI93", 0.20785, 1,    127.181,   89.1,    1.0598, 2,    127.197,  -91.0,      1.06, 0, 0, 0, 0
"BUSLVMAI94", 0.20785, 1,    127.425,   89.1,    1.0619, 2,    127.439,  -90.9,     1.062, 0, 0, 0, 0
"BUSLVMAI95", 0.20785, 1,    127.227,   89.0,    1.0602, 2,    127.242,  -91.0,    1.0604, 0, 0, 0, 0
"BUSLVMAI96", 0.20785, 1,    127.273,   89.0,    1.0606, 2,    127.287,  -91.0,    1.0607, 0, 0, 0, 0
"BUSLVMAI97", 0.20785, 1,    128.659, -149.8,    1.0722, 2,    128.675,   30.2,    1.0723, 0, 0, 0, 0
"BUSLVMAI98", 0.20785, 1,    128.659, -149.8,    1.0722, 2,    128.675,   30.2,    1.0723, 0, 0, 0, 0
"BUSLVMAI99", 0.20785, 1,    127.295,   89.0,    1.0608, 2,    127.309,  -91.0,    1.0609, 0, 0, 0, 0
"BUSLVMAI100", 0.20785, 1,    127.381,   89.0,    1.0615, 2,    127.396,  -91.0,    1.0616, 0, 0, 0, 0
"BUSLVMAI101", 0.20785, 1,    127.224,   89.0,    1.0602, 2,     127.24,  -91.0,    1.0603, 0, 0, 0, 0
"BUSLVMAI102", 0.20785, 1,    127.286,   89.0,    1.0607, 2,    127.302,  -91.0,    1.0608, 0, 0, 0, 0
"BUSLVMAI103", 0.20785, 1,    127.207,   89.0,    1.0601, 2,    127.222,  -91.0,    1.0602, 0, 0, 0, 0
"BUSLVMAI104", 0.20785, 1,    127.057,   88.9,    1.0588, 2,    127.071,  -91.1,    1.0589, 0, 0, 0, 0
"BUSLVMAI105", 0.20785, 1,    127.039,   88.9,    1.0587, 2,    127.053,  -91.1,    1.0588, 0, 0, 0, 0
"BUSLVMAI106", 0.20785, 1,    128.761,  -30.7,     1.073, 2,    128.774,  149.3,    1.0731, 0, 0, 0, 0
"BUSLVMAI107", 0.20785, 1,    127.292,   89.0,    1.0608, 2,    127.307,  -91.0,    1.0609, 0, 0, 0, 0
"BUSLVMAI108", 0.20785, 1,    127.236,   89.0,    1.0603, 2,     127.25,  -91.0,    1.0604, 0, 0, 0, 0
"BUSLVMAI109", 0.20785, 1,    128.583,  -30.7,    1.0715, 2,     128.63,  149.3,    1.0719, 0, 0, 0, 0
"BUSLVMAI110", 0.20785, 1,    128.541,  -30.7,    1.0712, 2,    128.572,  149.3,    1.0714, 0, 0, 0, 0
"BUSLVMAI111", 0.20785, 1,    128.578,  -30.7,    1.0715, 2,    128.594,  149.3,    1.0716, 0, 0, 0, 0
"BUSLVMAI112", 0.20785, 1,    128.684,  -30.7,    1.0724, 2,      128.7,  149.3,    1.0725, 0, 0, 0, 0
"BUSLVMAI113", 0.20785, 1,    128.671, -149.8,    1.0723, 2,    128.686,   30.2,    1.0724, 0, 0, 0, 0
"BUSLVMAI114", 0.20785, 1,    127.113,  -31.1,    1.0593, 2,    127.129,  148.9,    1.0594, 0, 0, 0, 0
"BUSLVMAI115", 0.20785, 1,    128.579,  -30.7,    1.0715, 2,    128.592,  149.3,    1.0716, 0, 0, 0, 0
"BUSLVMAI116", 0.20785, 1,    127.204,   89.0,      1.06, 2,    127.217,  -91.0,    1.0601, 0, 0, 0, 0
"BUSLVMAI117", 0.20785, 1,    128.528,  -30.7,    1.0711, 2,     128.55,  149.3,    1.0713, 0, 0, 0, 0
"BUSLVMAI118", 0.20785, 1,    129.243,  -30.4,     1.077, 2,    129.259,  149.6,    1.0772, 0, 0, 0, 0
"BUSLVMAI119", 0.20785, 1,     127.01,   88.9,    1.0584, 2,    127.023,  -91.1,    1.0585, 0, 0, 0, 0
"BUSLVMAI120", 0.20785, 1,    128.578,  -30.7,    1.0715, 2,    128.592,  149.3,    1.0716, 0, 0, 0, 0
"BUSLVMAI121", 0.20785, 1,    128.678, -149.8,    1.0723, 2,    128.694,   30.2,    1.0725, 0, 0, 0, 0
"BUSLVMAI122", 0.20785, 1,    127.193,   89.0,    1.0599, 2,    127.209,  -91.0,    1.0601, 0, 0, 0, 0
"BUSLVMAI123", 0.20785, 1,    128.666, -149.8,    1.0722, 2,     128.68,   30.2,    1.0723, 0, 0, 0, 0
"BUSLVMAI124", 0.20785, 1,    126.792,   88.8,    1.0566, 2,    126.839,  -91.2,     1.057, 0, 0, 0, 0
"BUSLVMAI125", 0.20785, 1,    126.327,   88.7,    1.0527, 2,    126.343,  -91.3,    1.0529, 0, 0, 0, 0
"BUSLVMAI126", 0.20785, 1,    128.675, -149.8,    1.0723, 2,     128.69,   30.2,    1.0724, 0, 0, 0, 0
"BUSLVMAI127", 0.20785, 1,    127.197,   89.0,      1.06, 2,    127.211,  -91.0,    1.0601, 0, 0, 0, 0
"BUSLVMAI128", 0.20785, 1,    129.173, -149.4,    1.0764, 2,    129.192,   30.6,    1.0766, 0, 0, 0, 0
"BUSLVMAI129", 0.20785, 1,    128.578,  -30.7,    1.0715, 2,    128.591,  149.3,    1.0716, 0, 0, 0, 0
"BUSLVMAI130", 0.20785, 1,    128.713,  -30.7,    1.0726, 2,    128.729,  149.3,    1.0727, 0, 0, 0, 0
"BUSLVMAI131", 0.20785, 1,    127.597,  -31.0,    1.0633, 2,    127.756,  149.0,    1.0646, 0, 0, 0, 0
"BUSLVMAI132", 0.20785, 1,    128.574,  -30.7,    1.0715, 2,    128.588,  149.3,    1.0716, 0, 0, 0, 0
"BUSLVMAI133", 0.20785, 1,    127.207,   89.0,    1.0601, 2,    127.225,  -91.0,    1.0602, 0, 0, 0, 0
"BUSLVMAI134", 0.20785, 1,    126.986,   88.9,    1.0582, 2,    127.001,  -91.1,    1.0583, 0, 0, 0, 0
"BUSLVMAI135", 0.20785, 1,    127.121,   88.9,    1.0593, 2,    127.137,  -91.1,    1.0595, 0, 0, 0, 0
"BUSLVMAI136", 0.20785, 1,    128.414,  -30.8,    1.0701, 2,    128.443,  149.2,    1.0704, 0, 0, 0, 0
"BUSLVMAI137", 0.20785, 1,    128.807, -149.7,    1.0734, 2,    128.821,   30.3,    1.0735, 0, 0, 0, 0
"BUSLVMAI138", 0.20785, 1,    128.407, -149.9,    1.0701, 2,    128.431,   30.1,    1.0703, 0, 0, 0, 0
"BUSLVMAI139", 0.20785, 1,    127.819, -150.2,    1.0652, 2,    127.839,   29.8,    1.0653, 0, 0, 0, 0
"BUSLVMAI140", 0.20785, 1,    128.598,  -30.7,    1.0716, 2,    128.614,  149.3,    1.0718, 0, 0, 0, 0
"BUSLVMAI141", 0.20785, 1,    128.676, -149.8,    1.0723, 2,     128.69,   30.2,    1.0724, 0, 0, 0, 0
"BUSLVMAI142", 0.20785, 1,     128.39, -149.9,    1.0699, 2,    128.404,   30.0,      1.07, 0, 0, 0, 0
"BUSLVMAI143", 0.20785, 1,    128.602, -149.9,    1.0717, 2,    128.618,   30.1,    1.0718, 0, 0, 0, 0
"BUSLVMAI144", 0.20785, 1,    127.195,   89.0,      1.06, 2,    127.211,  -91.0,    1.0601, 0, 0, 0, 0
"BUSLVMAI145", 0.20785, 1,    128.621,  -30.7,    1.0718, 2,    128.637,  149.3,     1.072, 0, 0, 0, 0
"BUSLVMAI146", 0.20785, 1,    128.651, -149.8,    1.0721, 2,    128.665,   30.2,    1.0722, 0, 0, 0, 0
"BUSLVMAI147", 0.20785, 1,    128.581,  -30.5,    1.0715, 2,    128.596,  149.5,    1.0716, 0, 0, 0, 0
"BUSLVMAI148", 0.20785, 1,    127.091,   89.0,    1.0591, 2,    127.106,  -91.0,    1.0592, 0, 0, 0, 0
"BUSLVMAI149", 0.20785, 1,    128.702, -149.8,    1.0725, 2,    128.715,   30.2,    1.0726, 0, 0, 0, 0
"BUSLVMAI150", 0.20785, 1,    127.795,  -31.1,     1.065, 2,    127.818,  148.9,    1.0651, 0, 0, 0, 0
"BUSLVMAI151", 0.20785, 1,    128.266, -149.7,    1.0689, 2,    128.279,   30.2,     1.069, 0, 0, 0, 0
"BUSLVMAI152", 0.20785, 1,    128.567,  -30.7,    1.0714, 2,    128.582,  149.3,    1.0715, 0, 0, 0, 0
"BUSLVMAI153", 0.20785, 1,    126.482,   88.8,     1.054, 2,    126.498,  -91.2,    1.0542, 0, 0, 0, 0
"BUSLVMAI154", 0.20785, 1,    127.201,   89.0,      1.06, 2,    127.217,  -91.0,    1.0601, 0, 0, 0, 0
"BUSLVMAI155", 0.20785, 1,     128.53,  -30.7,    1.0711, 2,    128.544,  149.3,    1.0712, 0, 0, 0, 0
"BUSLVMAI156", 0.20785, 1,    128.583,  -30.7,    1.0715, 2,    128.596,  149.3,    1.0716, 0, 0, 0, 0
"BUSLVMAI157", 0.20785, 1,    127.939,  -30.9,    1.0662, 2,    127.955,  149.0,    1.0663, 0, 0, 0, 0
"BUSLVMAI158", 0.20785, 1,    128.605, -149.9,    1.0717, 2,    128.618,   30.1,    1.0718, 0, 0, 0, 0
"BUSLVMAI159", 0.20785, 1,    128.674, -149.8,    1.0723, 2,    128.688,   30.2,    1.0724, 0, 0, 0, 0
"BUSLVMAI160", 0.20785, 1,      128.5,  -30.6,    1.0708, 2,     128.52,  149.4,     1.071, 0, 0, 0, 0
"BUSLVMAI161", 0.20785, 1,    128.463,  -30.7,    1.0705, 2,    128.491,  149.3,    1.0708, 0, 0, 0, 0
"BUSLVMAI162", 0.20785, 1,    128.337,  -30.8,    1.0695, 2,    128.353,  149.2,    1.0696, 0, 0, 0, 0
"BUSLVMAI163", 0.20785, 1,    128.566,  -30.7,    1.0714, 2,    128.582,  149.3,    1.0715, 0, 0, 0, 0
"BUSLVMAI164", 0.20785, 1,     128.74,  -30.7,    1.0728, 2,    128.753,  149.3,    1.0729, 0, 0, 0, 0
"BUSLVMAI165", 0.20785, 1,    127.746,  -31.0,    1.0645, 2,    127.797,  149.0,     1.065, 0, 0, 0, 0
"BUSLVMAI166", 0.20785, 1,    128.208,  -30.9,    1.0684, 2,    128.246,  149.1,    1.0687, 0, 0, 0, 0
"BUSLVMAI167", 0.20785, 1,    127.136,   89.0,    1.0595, 2,    127.161,  -91.0,    1.0597, 0, 0, 0, 0
"BUSLVMAI168", 0.20785, 1,    127.184,   89.0,    1.0599, 2,    127.198,  -91.0,      1.06, 0, 0, 0, 0
"BUSLVMAI169", 0.20785, 1,    126.415,  -31.1,    1.0535, 2,    126.432,  148.9,    1.0536, 0, 0, 0, 0
"BUSLVMAI170", 0.20785, 1,     128.57,  -30.7,    1.0714, 2,    128.585,  149.3,    1.0715, 0, 0, 0, 0
"BUSLVMAI171", 0.20785, 1,    127.975,  -30.9,    1.0665, 2,     128.05,  149.1,    1.0671, 0, 0, 0, 0
"BUSLVMAI172", 0.20785, 1,    127.436,   89.2,     1.062, 2,    127.451,  -90.8,    1.0621, 0, 0, 0, 0
"BUSLVMAI173", 0.20785, 1,    127.191,   89.0,    1.0599, 2,    127.207,  -91.0,    1.0601, 0, 0, 0, 0
"BUSLVMAI174", 0.20785, 1,    128.558,  -30.7,    1.0713, 2,    128.583,  149.3,    1.0715, 0, 0, 0, 0
"BUSLVMAI175", 0.20785, 1,    128.009,  -31.0,    1.0667, 2,    128.023,  149.0,    1.0669, 0, 0, 0, 0
"BUSLVMAI176", 0.20785, 1,    127.116,   89.0,    1.0593, 2,    127.129,  -91.0,    1.0594, 0, 0, 0, 0
"BUSLVMAI177", 0.20785, 1,    127.246,   89.0,    1.0604, 2,    127.259,  -91.0,    1.0605, 0, 0, 0, 0
"BUSLVMAI178", 0.20785, 1,    128.593, -149.9,    1.0716, 2,    128.606,   30.1,    1.0717, 0, 0, 0, 0
"BUSLVMAI179", 0.20785, 1,    128.472, -149.9,    1.0706, 2,    128.485,   30.1,    1.0707, 0, 0, 0, 0
"BUSLVMAI180", 0.20785, 1,    128.583,  -30.7,    1.0715, 2,    128.596,  149.3,    1.0716, 0, 0, 0, 0
"BUSLVMAI181", 0.20785, 1,    128.569,  -30.7,    1.0714, 2,    128.583,  149.3,    1.0715, 0, 0, 0, 0
"BUSLVMAI182", 0.20785, 1,     128.36,  -30.7,    1.0697, 2,    128.445,  149.3,    1.0704, 0, 0, 0, 0
"BUSLVMAI183", 0.20785, 1,    127.104,   89.0,    1.0592, 2,    127.119,  -91.0,    1.0593, 0, 0, 0, 0
"BUSLVMAI184", 0.20785, 1,    128.718,  -30.7,    1.0726, 2,    128.731,  149.3,    1.0728, 0, 0, 0, 0
"BUSLVMAI185", 0.20785, 1,    128.326, -149.9,    1.0694, 2,    128.339,   30.1,    1.0695, 0, 0, 0, 0
"BUSLVMAI186", 0.20785, 1,    127.204,   89.0,      1.06, 2,    127.219,  -91.0,    1.0602, 0, 0, 0, 0
"BUSLVMAI187", 0.20785, 1,    127.283,   89.1,    1.0607, 2,    127.296,  -90.9,    1.0608, 0, 0, 0, 0
"BUSLVMAI188", 0.20785, 1,    128.664, -149.8,    1.0722, 2,     128.68,   30.2,    1.0723, 0, 0, 0, 0
"BUSLVMAI189", 0.20785, 1,    128.578,  -30.7,    1.0715, 2,    128.594,  149.3,    1.0716, 0, 0, 0, 0
"BUSLVMAI190", 0.20785, 1,    128.668, -149.8,    1.0722, 2,    128.684,   30.2,    1.0724, 0, 0, 0, 0
"BUSLVMAI191", 0.20785, 1,    127.201,   89.0,      1.06, 2,    127.217,  -91.0,    1.0601, 0, 0, 0, 0
"BUSLVMAI192", 0.20785, 1,    128.561,  -30.7,    1.0713, 2,    128.577,  149.3,    1.0715, 0, 0, 0, 0
"BUSLVMAI193", 0.20785, 1,    128.572,  -30.7,    1.0714, 2,    128.588,  149.3,    1.0716, 0, 0, 0, 0
"BUSLVMAI194", 0.20785, 1,    127.091,   89.0,    1.0591, 2,    127.106,  -91.0,    1.0592, 0, 0, 0, 0
"BUSLVMAI195", 0.20785, 1,    127.204,   89.0,      1.06, 2,    127.219,  -91.0,    1.0602, 0, 0, 0, 0
"BUSLVMAI196", 0.20785, 1,    128.668, -149.8,    1.0722, 2,    128.684,   30.2,    1.0724, 0, 0, 0, 0
"BUSLVMAI197", 0.20785, 1,     128.51, -149.9,    1.0709, 2,    128.525,   30.1,     1.071, 0, 0, 0, 0
"BUSLVMAI198", 0.20785, 1,    128.671, -149.8,    1.0723, 2,    128.687,   30.2,    1.0724, 0, 0, 0, 0
"BUSLVMAI199", 0.20785, 1,    128.671, -149.8,    1.0723, 2,    128.687,   30.2,    1.0724, 0, 0, 0, 0
"BUSLVMAI200", 0.20785, 1,    128.562,  -30.7,    1.0713, 2,    128.578,  149.3,    1.0715, 0, 0, 0, 0
...
